data_crystal

_cell_length_a    14.05600
_cell_length_b    17.91500
_cell_length_c    17.91700
_cell_angle_alpha 100.31200
_cell_angle_beta  91.95900
_cell_angle_gamma 91.88900

_symmetry_space_group_name_Hall 'P 1'
_symmetry_space_group_name_H-M  'P 1'

loop_
_symmetry_equiv_pos_as_xyz
 'x,y,z'

loop_
_atom_site_label
_atom_site_type_symbol
_atom_site_fract_x
_atom_site_fract_y
_atom_site_fract_z
_atom_site_charge
Zn         Zn      0.10066   0.09029   0.91865   0.9090620370
Zn         Zn      0.89933   0.08141   0.90968   0.9090620370
Zn         Zn      0.41677   0.29387   0.45975   0.9090620370
Zn         Zn      0.21327   0.28365   0.45036   0.9090620370
Zn         Zn      0.58320   0.54029   0.70619   0.9090620370
Zn         Zn      0.78672   0.54963   0.71670   0.9090620370
H          H       0.84954   0.31929   0.88841   0.1135620370
H          H       0.14831   0.33205   0.94923   0.1135620370
H          H       0.24031   0.44633   0.96274   0.1135620370
H          H       0.20590   0.50377   0.89569   0.1135620370
H          H       0.17829   0.53148   0.99181   0.1135620370
H          H       0.85648   0.45706   0.87979   0.1135620370
H          H       0.85267   0.69317   0.88287   0.1135620370
H          H       0.24272   0.75117   0.93296   0.1135620370
H          H       0.18529   0.70103   0.99693   0.1135620370
H          H       0.19220   0.65721   0.90146   0.1135620370
H          H       0.14688   0.85907   0.92610   0.1135620370
H          H       0.84460   0.83245   0.88340   0.1135620370
H          H       0.25042   0.10977   0.80817   0.1135620370
H          H       0.25841   0.06662   0.02724   0.1135620370
H          H       0.43672   0.06074   0.03016   0.1135620370
H          H       0.42849   0.11101   0.80302   0.1135620370
H          H       0.15047   0.11150   0.68081   0.1135620370
H          H       0.85169   0.05088   0.66776   0.1135620370
H          H       0.75975   0.03740   0.55340   0.1135620370
H          H       0.79415   0.10435   0.49594   0.1135620370
H          H       0.82178   0.00000   0.46838   0.1135620370
H          H       0.14358   0.12004   0.54304   0.1135620370
H          H       0.14744   0.11722   0.30690   0.1135620370
H          H       0.75746   0.06692   0.24863   0.1135620370
H          H       0.81500   0.00298   0.29884   0.1135620370
H          H       0.80795   0.09847   0.34260   0.1135620370
H          H       0.85326   0.07377   0.14082   0.1135620370
H          H       0.15548   0.11662   0.16770   0.1135620370
H          H       0.74928   0.19178   0.88985   0.1135620370
H          H       0.74183   0.97293   0.93368   0.1135620370
H          H       0.56355   0.97000   0.93963   0.1135620370
H          H       0.57121   0.19689   0.88866   0.1135620370
H          H       0.46750   0.29207   0.22677   0.1135620370
H          H       0.16351   0.26128   0.20271   0.1135620370
H          H       0.17116   0.26017   0.06320   0.1135620370
H          H       0.50455   0.34148   0.04474   0.1135620370
H          H       0.56207   0.30843   0.12212   0.1135620370
H          H       0.52132   0.24366   0.03916   0.1135620370
H          H       0.53263   0.31488   0.87026   0.1135620370
H          H       0.52731   0.39925   0.83173   0.1135620370
H          H       0.46678   0.39059   0.91606   0.1135620370
H          H       0.17878   0.24298   0.82446   0.1135620370
H          H       0.17283   0.24804   0.68606   0.1135620370
H          H       0.45334   0.35520   0.71010   0.1135620370
H          H       0.47480   0.05801   0.46850   0.1135620370
H          H       0.17272   0.03871   0.42114   0.1135620370
H          H       0.17338   0.90153   0.42907   0.1135620370
H          H       0.56329   0.95279   0.49122   0.1135620370
H          H       0.49961   0.88302   0.53140   0.1135620370
H          H       0.52084   0.86562   0.43382   0.1135620370
H          H       0.17504   0.65717   0.41990   0.1135620370
H          H       0.52613   0.70928   0.48505   0.1135620370
H          H       0.46566   0.74866   0.56654   0.1135620370
H          H       0.53093   0.66469   0.56610   0.1135620370
H          H       0.45537   0.54409   0.52550   0.1135620370
H          H       0.17243   0.51810   0.42287   0.1135620370
H          H       0.55703   0.21689   0.35756   0.1135620370
H          H       0.58349   0.37793   0.55518   0.1135620370
H          H       0.76014   0.37764   0.55581   0.1135620370
H          H       0.73395   0.21025   0.34890   0.1135620370
H          H       0.88784   0.29273   0.57306   0.1135620370
H          H       0.87727   0.28365   0.32999   0.1135620370
H          H       0.05479   0.27834   0.33451   0.1135620370
H          H       0.06546   0.28731   0.56687   0.1135620370
H          H       0.53238   0.77333   0.70814   0.1135620370
H          H       0.83637   0.79723   0.73904   0.1135620370
H          H       0.82864   0.93675   0.74011   0.1135620370
H          H       0.49525   0.95532   0.65855   0.1135620370
H          H       0.43776   0.87801   0.69159   0.1135620370
H          H       0.47844   0.96100   0.75635   0.1135620370
H          H       0.46719   0.13018   0.68527   0.1135620370
H          H       0.47239   0.16851   0.60079   0.1135620370
H          H       0.53280   0.08409   0.60957   0.1135620370
H          H       0.82123   0.17534   0.75683   0.1135620370
H          H       0.82722   0.31377   0.75180   0.1135620370
H          H       0.54652   0.29011   0.64479   0.1135620370
H          H       0.52521   0.53154   0.94200   0.1135620370
H          H       0.82731   0.57862   0.96160   0.1135620370
H          H       0.82663   0.57077   0.09877   0.1135620370
H          H       0.43672   0.50897   0.04723   0.1135620370
H          H       0.50036   0.46877   0.11712   0.1135620370
H          H       0.47917   0.56643   0.13437   0.1135620370
H          H       0.82474   0.58050   0.34322   0.1135620370
H          H       0.47372   0.51519   0.29077   0.1135620370
H          H       0.53434   0.43371   0.25145   0.1135620370
H          H       0.46912   0.43414   0.33537   0.1135620370
H          H       0.54461   0.47470   0.45598   0.1135620370
H          H       0.82736   0.57750   0.48220   0.1135620370
H          H       0.44288   0.64252   0.78315   0.1135620370
H          H       0.41655   0.44483   0.62220   0.1135620370
H          H       0.23990   0.44417   0.62240   0.1135620370
H          H       0.26597   0.65111   0.78978   0.1135620370
H          H       0.11236   0.42690   0.70727   0.1135620370
H          H       0.12248   0.67000   0.71650   0.1135620370
H          H       0.94499   0.66545   0.72192   0.1135620370
H          H       0.93476   0.43306   0.71282   0.1135620370
C          C       0.99663   0.23397   0.92188   0.6726120370
C          C       0.99871   0.31722   0.91946   0.0175194180
C          C       0.91621   0.35265   0.90010  -0.1271917130
C          C       0.08467   0.36019   0.93451  -0.1271917130
C          C       0.09068   0.43727   0.93094   0.0175194180
C          C       0.18389   0.48183   0.94636  -0.3465121296
C          C       0.91989   0.42925   0.89573  -0.1271917130
C          C       0.00643   0.47268   0.91174   0.0175194180
C          C       0.00813   0.55124   0.90958  -0.0901421296
C          C       0.00739   0.61939   0.90922  -0.0901421296
C          C       0.00447   0.69801   0.90795   0.0175194180
C          C       0.91660   0.73016   0.89380  -0.1271917130
C          C       0.08918   0.74497   0.92054   0.0175194180
C          C       0.18250   0.71217   0.93840  -0.3465121296
C          C       0.08296   0.82189   0.91740  -0.1271917130
C          C       0.91229   0.80739   0.89339  -0.1271917130
C          C       0.99555   0.85404   0.90470   0.0175194180
C          C       0.99144   0.93762   0.90444   0.6726120370
C          C       0.29509   0.10000   0.85605   0.1757537037
C          C       0.29955   0.07451   0.97859   0.1757537037
C          C       0.39827   0.07149   0.97958  -0.1271917130
C          C       0.39375   0.10012   0.85364  -0.1271917130
C          C       0.44739   0.08497   0.91617   0.0175194180
C          C       0.00334   0.07819   0.76600   0.6726120370
C          C       0.00128   0.08058   0.68275   0.0175194180
C          C       0.08380   0.09985   0.64740  -0.1271917130
C          C       0.91534   0.06556   0.63969  -0.1271917130
C          C       0.90938   0.06909   0.56260   0.0175194180
C          C       0.81617   0.05369   0.51797  -0.3465121296
C          C       0.08016   0.10417   0.57078  -0.1271917130
C          C       0.99363   0.08822   0.52728   0.0175194180
C          C       0.99196   0.09038   0.44873  -0.0901421296
C          C       0.99276   0.09077   0.38059  -0.0901421296
C          C       0.99568   0.09204   0.30199   0.0175194180
C          C       0.08352   0.10621   0.26992  -0.1271917130
C          C       0.91098   0.07940   0.25497   0.0175194180
C          C       0.81769   0.06151   0.28769  -0.3465121296
C          C       0.91718   0.08242   0.17805  -0.1271917130
C          C       0.08780   0.10663   0.19269  -0.1271917130
C          C       0.00455   0.09525   0.14597   0.0175194180
C          C       0.00862   0.09551   0.06240   0.6726120370
C          C       0.70474   0.14395   0.89979   0.1757537037
C          C       0.70059   0.02154   0.92565   0.1757537037
C          C       0.60188   0.02055   0.92871  -0.1271917130
C          C       0.60607   0.14634   0.89970  -0.1271917130
C          C       0.55260   0.08388   0.91505   0.0175194180
C          C       0.31145   0.27890   0.30684   0.6726120370
C          C       0.31528   0.27714   0.22304   0.0175194180
C          C       0.40323   0.28547   0.19006  -0.1271917130
C          C       0.23150   0.26826   0.17700  -0.1271917130
C          C       0.23562   0.26831   0.09976  -0.1271917130
C          C       0.40972   0.28680   0.11287   0.0175194180
C          C       0.50441   0.29580   0.07830  -0.3465121296
C          C       0.32402   0.27892   0.06710   0.0175194180
C          C       0.32595   0.28327   0.98919  -0.0901421296
C          C       0.32421   0.28932   0.92231  -0.0901421296
C          C       0.32051   0.29520   0.84466   0.0175194180
C          C       0.39874   0.32847   0.81247   0.0175194180
C          C       0.48573   0.36039   0.85999  -0.3465121296
C          C       0.23859   0.26749   0.79869  -0.1271917130
C          C       0.23528   0.27033   0.72172  -0.1271917130
C          C       0.39354   0.32985   0.73493  -0.1271917130
C          C       0.31385   0.29999   0.68875   0.0175194180
C          C       0.31382   0.29822   0.60486   0.6726120370
C          C       0.32312   0.14071   0.44493   0.6726120370
C          C       0.32398   0.05708   0.44529   0.0175194180
C          C       0.40925   0.02280   0.46015  -0.1271917130
C          C       0.23894   0.01260   0.43333  -0.1271917130
C          C       0.23943   0.93611   0.43777  -0.1271917130
C          C       0.41179   0.94610   0.46528   0.0175194180
C          C       0.50381   0.91048   0.48141  -0.3465121296
C          C       0.32477   0.90180   0.45453   0.0175194180
C          C       0.32272   0.82403   0.46053  -0.0901421296
C          C       0.31943   0.75680   0.46559  -0.0901421296
C          C       0.31742   0.67870   0.47030   0.0175194180
C          C       0.23620   0.63172   0.44304  -0.1271917130
C          C       0.39745   0.64660   0.50150   0.0175194180
C          C       0.48464   0.69463   0.53183  -0.3465121296
C          C       0.39411   0.56877   0.50182  -0.1271917130
C          C       0.23459   0.55445   0.44448  -0.1271917130
C          C       0.31464   0.52194   0.47266   0.0175194180
C          C       0.31641   0.43791   0.46975   0.6726120370
C          C       0.60536   0.25132   0.39992   0.1757537037
C          C       0.61948   0.34079   0.51103   0.1757537037
C          C       0.71835   0.34010   0.51118  -0.1271917130
C          C       0.70357   0.24835   0.39550  -0.1271917130
C          C       0.76243   0.29275   0.45270   0.0175194180
C          C       0.86731   0.28940   0.45171   0.0175194180
C          C       0.92191   0.29077   0.51904  -0.1271917130
C          C       0.91573   0.28435   0.38395  -0.1271917130
C          C       0.01444   0.28186   0.38578   0.1757537037
C          C       0.02029   0.28736   0.51625   0.1757537037
C          C       0.68849   0.69317   0.72129   0.6726120370
C          C       0.68460   0.77698   0.72310   0.0175194180
C          C       0.59663   0.81001   0.71476  -0.1271917130
C          C       0.76836   0.82295   0.73203  -0.1271917130
C          C       0.76420   0.90023   0.73195  -0.1271917130
C          C       0.59010   0.88720   0.71330   0.0175194180
C          C       0.49539   0.92177   0.70426  -0.3465121296
C          C       0.67578   0.93293   0.72126   0.0175194180
C          C       0.67385   0.01084   0.71679  -0.0901421296
C          C       0.67565   0.07770   0.71064  -0.0901421296
C          C       0.67938   0.15534   0.70470   0.0175194180
C          C       0.60110   0.18765   0.67150   0.0175194180
C          C       0.51400   0.14025   0.63968  -0.3465121296
C          C       0.76139   0.20120   0.73236  -0.1271917130
C          C       0.76473   0.27818   0.72953  -0.1271917130
C          C       0.60635   0.26519   0.67010  -0.1271917130
C          C       0.68613   0.31126   0.69992   0.0175194180
C          C       0.68617   0.39518   0.70183   0.6726120370
C          C       0.67688   0.55501   0.85950   0.6726120370
C          C       0.67604   0.55460   0.94311   0.0175194180
C          C       0.59077   0.53983   0.97734  -0.1271917130
C          C       0.76109   0.56650   0.98766  -0.1271917130
C          C       0.76059   0.56212   0.06414  -0.1271917130
C          C       0.58822   0.53478   0.05403   0.0175194180
C          C       0.49619   0.51877   0.08958  -0.3465121296
C          C       0.67524   0.54549   0.09839   0.0175194180
C          C       0.67727   0.53960   0.17618  -0.0901421296
C          C       0.68050   0.53463   0.24343  -0.0901421296
C          C       0.68247   0.53000   0.32154   0.0175194180
C          C       0.76363   0.55731   0.36860  -0.1271917130
C          C       0.60248   0.49874   0.35355   0.0175194180
C          C       0.51533   0.46842   0.30545  -0.3465121296
C          C       0.60581   0.49846   0.43137  -0.1271917130
C          C       0.76524   0.55587   0.44586  -0.1271917130
C          C       0.68524   0.52763   0.47827   0.0175194180
C          C       0.68347   0.53040   0.56220   0.6726120370
C          C       0.39458   0.60014   0.74873   0.1757537037
C          C       0.38054   0.48900   0.65930   0.1757537037
C          C       0.28166   0.48883   0.65999  -0.1271917130
C          C       0.29637   0.60448   0.75169  -0.1271917130
C          C       0.23754   0.54731   0.70731   0.0175194180
C          C       0.13267   0.54827   0.71069   0.0175194180
C          C       0.07819   0.48092   0.70929  -0.1271917130
C          C       0.08413   0.61603   0.71579  -0.1271917130
C          C       0.98543   0.61418   0.71835   0.1757537037
C          C       0.97981   0.48369   0.71278   0.1757537037
N          N       0.24846   0.08797   0.91760  -0.2928679630
N          N       0.75152   0.08246   0.91199  -0.2928679630
N          N       0.56361   0.29664   0.45693  -0.2928679630
N          N       0.06629   0.28339   0.45083  -0.2928679630
N          N       0.43637   0.54312   0.70343  -0.2928679630
N          N       0.93370   0.54912   0.71682  -0.2928679630
O          O       0.07043   0.97426   0.90299  -0.5904279630
O          O       0.90911   0.96577   0.90613  -0.5904279630
O          O       0.91651   0.19747   0.90930  -0.5904279630
O          O       0.07599   0.20535   0.93523  -0.5904279630
O          O       0.92959   0.09700   0.02573  -0.5904279630
O          O       0.09093   0.09381   0.03429  -0.5904279630
O          O       0.08347   0.09072   0.80256  -0.5904279630
O          O       0.92399   0.06490   0.79457  -0.5904279630
O          O       0.39106   0.28456   0.34422  -0.5904279630
O          O       0.22944   0.27519   0.33458  -0.5904279630
O          O       0.39491   0.30341   0.57582  -0.5904279630
O          O       0.23332   0.29163   0.56872  -0.5904279630
O          O       0.40329   0.17722   0.45062  -0.5904279630
O          O       0.24164   0.16946   0.44040  -0.5904279630
O          O       0.39826   0.40963   0.47454  -0.5904279630
O          O       0.23688   0.40054   0.46256  -0.5904279630
O          O       0.60891   0.65580   0.71558  -0.5904279630
O          O       0.77053   0.66539   0.72498  -0.5904279630
O          O       0.60506   0.42428   0.69660  -0.5904279630
O          O       0.76665   0.43129   0.70862  -0.5904279630
O          O       0.59673   0.54936   0.82293  -0.5904279630
O          O       0.75837   0.55958   0.83080  -0.5904279630
O          O       0.60161   0.52558   0.59045  -0.5904279630
O          O       0.76299   0.53746   0.59971  -0.5904279630
